[TITLE]
;--------------------------------
; Job Description
;--------------------------------
Random network  29 by  19 nodes    

[JUNCTIONS]
;--------------------------------------
;   ID   Elevation   Demand   (Pattern)
;--------------------------------------
     2   0.0   6.0
     3   0.0   2.0
     4   0.0   0.0
     5   0.0   6.0
     6   0.0   4.0
     7   0.0   5.0
     8   0.0   9.0
     9   0.0   9.0
    10   0.0   2.0
    11   0.0   2.0
    12   0.0   3.0
    13   0.0   3.0
    14   0.0   5.0
    15   0.0   8.0
    16   0.0   2.0
    17   0.0   3.0
    18   0.0   2.0
    19   0.0   0.0
    20   0.0   1.0
    21   0.0   6.0
    22   0.0   9.0
    23   0.0   2.0
    24   0.0   0.0
    25   0.0   9.0
    26   0.0   4.0
    27   0.0   3.0
    28   0.0   8.0
    29   0.0   9.0
    30   0.0   9.0
    31   0.0   2.0
    32   0.0   4.0
    33   0.0   6.0
    34   0.0   5.0
    35   0.0   5.0
    36   0.0   2.0
    37   0.0   2.0
    38   0.0   2.0
    39   0.0   8.0
    40   0.0   3.0
    41   0.0   2.0
    42   0.0   7.0
    43   0.0   9.0
    44   0.0   3.0
    45   0.0   1.0
    46   0.0   9.0
    47   0.0   2.0
    48   0.0   9.0
    49   0.0   2.0
    50   0.0   8.0
    51   0.0   1.0
    52   0.0   8.0
    53   0.0   3.0
    54   0.0   7.0
    55   0.0   6.0
    56   0.0   0.0
    57   0.0   3.0
    58   0.0   8.0
    59   0.0   4.0
    60   0.0   9.0
    61   0.0   4.0
    62   0.0   7.0
    63   0.0   6.0
    64   0.0   4.0
    65   0.0   8.0
    66   0.0   0.0
    67   0.0   9.0
    68   0.0   6.0
    69   0.0   3.0
    70   0.0   6.0
    71   0.0   3.0
    72   0.0   1.0
    73   0.0   5.0
    74   0.0   0.0
    75   0.0   4.0
    76   0.0   5.0
    77   0.0   7.0
    78   0.0   5.0
    79   0.0   6.0
    80   0.0   8.0
    81   0.0   6.0
    82   0.0   2.0
    83   0.0   3.0
    84   0.0   9.0
    85   0.0   2.0
    86   0.0   1.0
    87   0.0   0.0
    88   0.0   3.0
    89   0.0   1.0
    90   0.0   3.0
    91   0.0   0.0
    92   0.0   9.0
    94   0.0   5.0
    95   0.0   8.0
    96   0.0   2.0
    98   0.0   1.0
    99   0.0   6.0
   100   0.0   3.0
   101   0.0   6.0
   102   0.0   0.0
   103   0.0   3.0
   104   0.0   8.0
   105   0.0   2.0
   106   0.0   2.0
   107   0.0   5.0
   108   0.0   7.0
   109   0.0   0.0
   110   0.0   9.0
   111   0.0   5.0
   112   0.0   0.0
   113   0.0   8.0
   114   0.0   3.0
   115   0.0   1.0
   116   0.0   8.0
   117   0.0   4.0
   118   0.0   6.0
   119   0.0   6.0
   120   0.0   3.0
   121   0.0   2.0
   122   0.0   8.0
   123   0.0   7.0
   124   0.0   2.0
   125   0.0   9.0
   126   0.0   7.0
   127   0.0   0.0
   128   0.0   5.0
   129   0.0   2.0
   130   0.0   4.0
   132   0.0   4.0
   133   0.0   3.0
   134   0.0   5.0
   135   0.0   0.0
   136   0.0   5.0
   137   0.0   4.0
   138   0.0   5.0
   139   0.0   7.0
   140   0.0   9.0
   141   0.0   4.0
   142   0.0   7.0
   143   0.0   9.0
   145   0.0   2.0
   146   0.0   8.0
   147   0.0   8.0
   148   0.0   5.0
   149   0.0   4.0
   150   0.0   4.0
   151   0.0   4.0
   152   0.0   4.0
   153   0.0   1.0
   154   0.0   9.0
   155   0.0   2.0
   156   0.0   8.0
   157   0.0   0.0
   158   0.0   4.0
   159   0.0   4.0
   160   0.0   1.0
   161   0.0   1.0
   162   0.0   8.0
   163   0.0   1.0
   164   0.0   9.0
   165   0.0   7.0
   166   0.0   2.0
   167   0.0   8.0
   168   0.0   2.0
   169   0.0   7.0
   170   0.0   1.0
   171   0.0   3.0
   172   0.0   9.0
   173   0.0   3.0
   174   0.0   2.0
   175   0.0   6.0
   176   0.0   3.0
   177   0.0   8.0
   178   0.0   4.0
   179   0.0   4.0
   180   0.0   7.0
   181   0.0   3.0
   182   0.0   9.0
   183   0.0   6.0
   184   0.0   7.0
   185   0.0   2.0
   186   0.0   3.0
   187   0.0   1.0
   188   0.0   9.0
   189   0.0   1.0
   190   0.0   3.0
   191   0.0   1.0
   192   0.0   2.0
   193   0.0   9.0
   194   0.0   5.0
   195   0.0   2.0
   196   0.0   2.0
   197   0.0   4.0
   198   0.0   8.0
   199   0.0   9.0
   200   0.0   3.0
   201   0.0   5.0
   202   0.0   3.0
   203   0.0   4.0
   204   0.0   3.0
   205   0.0   1.0
   206   0.0   0.0
   207   0.0   6.0
   208   0.0   7.0
   209   0.0   2.0
   210   0.0   7.0
   211   0.0   4.0
   212   0.0   6.0
   213   0.0   0.0
   214   0.0   6.0
   215   0.0   8.0
   216   0.0   0.0
   217   0.0   4.0
   218   0.0   9.0
   219   0.0   7.0
   220   0.0   7.0
   221   0.0   4.0
   222   0.0   0.0
   223   0.0   5.0
   224   0.0   7.0
   225   0.0   9.0
   226   0.0   6.0
   227   0.0   1.0
   228   0.0   8.0
   229   0.0   7.0
   230   0.0   5.0
   231   0.0   4.0
   232   0.0   9.0
   233   0.0   2.0
   234   0.0   3.0
   235   0.0   1.0
   236   0.0   4.0
   237   0.0   6.0
   238   0.0   8.0
   240   0.0   6.0
   241   0.0   6.0
   242   0.0   3.0
   243   0.0   7.0
   244   0.0   0.0
   245   0.0   6.0
   246   0.0   9.0
   247   0.0   8.0
   248   0.0   0.0
   249   0.0   2.0
   250   0.0   4.0
   251   0.0   4.0
   252   0.0   3.0
   253   0.0   0.0
   254   0.0   8.0
   256   0.0   1.0
   257   0.0   6.0
   258   0.0   8.0
   259   0.0   9.0
   260   0.0   7.0
   261   0.0   6.0
   262   0.0   4.0
   263   0.0   7.0
   264   0.0   5.0
   265   0.0   8.0
   266   0.0   1.0
   267   0.0   5.0
   268   0.0   3.0
   269   0.0   8.0
   270   0.0   2.0
   271   0.0   2.0
   272   0.0   8.0
   273   0.0   5.0
   274   0.0   1.0
   275   0.0   2.0
   276   0.0   8.0
   277   0.0   8.0
   278   0.0   9.0
   279   0.0   1.0
   280   0.0   1.0
   281   0.0   3.0
   283   0.0   3.0
   284   0.0   1.0
   285   0.0   8.0
   286   0.0   8.0
   287   0.0   2.0
   288   0.0   9.0
   289   0.0   0.0
   290   0.0   8.0
   291   0.0   1.0
   292   0.0   0.0
   293   0.0   4.0
   295   0.0   7.0
   296   0.0   0.0
   297   0.0   6.0
   298   0.0   5.0
   299   0.0   4.0
   300   0.0   1.0
   301   0.0   7.0
   302   0.0   3.0
   303   0.0   7.0
   304   0.0   6.0
   305   0.0   5.0
   306   0.0   4.0
   307   0.0   5.0
   308   0.0   2.0
   309   0.0   0.0
   310   0.0   2.0
   311   0.0   1.0
   312   0.0   9.0
   313   0.0   0.0
   314   0.0   5.0
   315   0.0   0.0
   316   0.0   2.0
   317   0.0   2.0
   318   0.0   4.0
   319   0.0   4.0
   320   0.0   6.0
   321   0.0   0.0
   322   0.0   9.0
   323   0.0   9.0
   324   0.0   1.0
   325   0.0   5.0
   326   0.0   3.0
   327   0.0   3.0
   328   0.0   6.0
   329   0.0   0.0
   330   0.0   3.0
   331   0.0   7.0
   332   0.0   2.0
   333   0.0   6.0
   334   0.0   5.0
   335   0.0   1.0
   336   0.0   8.0
   337   0.0   4.0
   338   0.0   6.0
   339   0.0   9.0
   340   0.0   5.0
   341   0.0   5.0
   342   0.0   4.0
   343   0.0   7.0
   344   0.0   0.0
   345   0.0   1.0
   346   0.0   9.0
   347   0.0   5.0
   348   0.0   8.0
   349   0.0   7.0
   350   0.0   5.0
   351   0.0   5.0
   352   0.0   8.0
   353   0.0   1.0
   354   0.0   3.0
   355   0.0   4.0
   356   0.0   9.0
   357   0.0   2.0
   358   0.0   4.0
   359   0.0   2.0
   360   0.0   3.0
   361   0.0   5.0
   363   0.0   5.0
   364   0.0   2.0
   365   0.0   1.0
   366   0.0   8.0
   368   0.0   8.0
   369   0.0   4.0
   370   0.0   0.0
   371   0.0   4.0
   372   0.0   4.0
   373   0.0   8.0
   374   0.0   4.0
   375   0.0   1.0
   376   0.0   2.0
   377   0.0   2.0
   378   0.0   0.0
   379   0.0   4.0
   381   0.0   8.0
   382   0.0   3.0
   383   0.0   7.0
   384   0.0   8.0
   385   0.0   3.0
   386   0.0   8.0
   387   0.0   2.0
   388   0.0   3.0
   389   0.0   4.0
   390   0.0   8.0
   391   0.0   9.0
   392   0.0   7.0
   393   0.0   6.0
   394   0.0   6.0
   395   0.0   8.0
   396   0.0   1.0
   397   0.0   6.0
   398   0.0   8.0
   399   0.0   2.0
   400   0.0   3.0
   401   0.0   5.0
   402   0.0   2.0
   403   0.0   3.0
   404   0.0   3.0
   405   0.0   0.0
   406   0.0   3.0
   407   0.0   1.0
   408   0.0   9.0
   409   0.0   4.0
   410   0.0   0.0
   411   0.0   4.0
   412   0.0   2.0
   413   0.0   9.0
   414   0.0   6.0
   415   0.0   3.0
   416   0.0   6.0
   417   0.0   5.0
   418   0.0   2.0
   419   0.0   7.0
   420   0.0   3.0
   421   0.0   3.0
   422   0.0   3.0
   423   0.0   1.0
   424   0.0   7.0
   425   0.0   3.0
   426   0.0   6.0
   427   0.0   5.0
   428   0.0   9.0
   429   0.0   6.0
   430   0.0   0.0
   431   0.0   4.0
   432   0.0   2.0
   433   0.0   4.0
   434   0.0   8.0
   436   0.0   7.0
   437   0.0   9.0
   438   0.0   5.0
   439   0.0   1.0
   440   0.0   1.0
   441   0.0   7.0
   442   0.0   9.0
   443   0.0   2.0
   444   0.0   9.0
   445   0.0   2.0
   446   0.0   2.0
   447   0.0   3.0
   448   0.0   5.0
   449   0.0   9.0
   450   0.0   0.0
   451   0.0   4.0
   452   0.0   7.0
   453   0.0   8.0
   454   0.0   8.0
   455   0.0   6.0
   456   0.0   0.0
   457   0.0   9.0
   458   0.0   4.0
   459   0.0   1.0
   460   0.0   2.0
   461   0.0   6.0
   462   0.0   1.0
   463   0.0   2.0
   464   0.0   0.0
   465   0.0   5.0
   466   0.0   0.0
   467   0.0   4.0
   468   0.0   9.0
   469   0.0   2.0
   470   0.0   5.0
   471   0.0   1.0
   472   0.0   9.0
   473   0.0   5.0
   474   0.0   6.0
   475   0.0   7.0
   476   0.0   6.0
   477   0.0   1.0
   478   0.0   9.0
   479   0.0   2.0
   480   0.0   1.0
   481   0.0   8.0
   482   0.0   3.0
   483   0.0   8.0
   484   0.0   2.0
   485   0.0   6.0
   486   0.0   9.0
   487   0.0   5.0
   488   0.0   0.0
   489   0.0   7.0
   490   0.0   5.0
   491   0.0   3.0
   492   0.0   1.0
   493   0.0   8.0
   494   0.0   1.0
   495   0.0   4.0
   496   0.0   5.0
   497   0.0   0.0
   498   0.0   8.0
   499   0.0   0.0
   500   0.0   0.0
   501   0.0   3.0
   502   0.0   2.0
   503   0.0   1.0
   504   0.0   5.0
   505   0.0   3.0
   506   0.0   3.0
   507   0.0   8.0
   508   0.0   5.0
   509   0.0   2.0
   510   0.0   1.0
   511   0.0   9.0
   512   0.0   5.0
   513   0.0   6.0
   514   0.0   0.0
   515   0.0   7.0
   516   0.0   5.0
   517   0.0   0.0
   518   0.0   9.0
   519   0.0   2.0
   520   0.0   1.0
   521   0.0   7.0
   522   0.0   9.0
   523   0.0   0.0
   524   0.0   2.0
   525   0.0   9.0
   526   0.0   8.0
   527   0.0   8.0
   528   0.0   4.0
   529   0.0   0.0
   530   0.0   7.0
   531   0.0   3.0
   532   0.0   8.0
   533   0.0   2.0
   534   0.0   1.0
   535   0.0   8.0
   536   0.0   7.0
   537   0.0   6.0
   538   0.0   4.0
   539   0.0   8.0
   540   0.0   9.0
   541   0.0   2.0
   542   0.0   9.0
   543   0.0   0.0
   544   0.0   0.0
   545   0.0   9.0
   546   0.0   2.0
   547   0.0   1.0
   548   0.0   3.0
   549   0.0   5.0
   550   0.0   8.0
   551   0.0   3.0

[TANKS]
;------------------
;          Initial
;   ID      Level
;------------------
      1 260.0
     93 180.0
     97 220.0
    131 240.0
    144 160.0
    239 300.0
    255 180.0
    282 120.0
    294 260.0
    362 120.0
    367 120.0
    380 180.0
    435 160.0

[PIPES]
;---------------------------------------------------
;      ID  Start  End    L     D     Rough Minor K  
;---------------------------------------------------
      1      1      2  500.00  300.00    0.30    0.00
      2      1     30  100.00  150.00    0.30    0.00
      3      2      3  600.00  200.00    0.30    0.00
      4      2     31 1000.00  250.00    0.30    0.00
      5      3      4  800.00  200.00    0.30    0.00
      6      3     32 1000.00  200.00    0.30    0.00
      7      4      5  400.00  300.00    0.30    0.00
      8      4     33  600.00  150.00    0.30    0.00
      9      5      6  100.00  100.00    0.30    0.00
     10      5     34  700.00  100.00    0.30    0.00
     11      6      7  900.00  250.00    0.30    0.00
     12      6     35  300.00  200.00    0.30    0.00
     13      7      8  500.00  150.00    0.30    0.00
     14      7     36 1000.00  250.00    0.30    0.00
     15      8      9  600.00  100.00    0.30    0.00
     16      8     37  100.00  150.00    0.30    0.00
     17      9     10  300.00  300.00    0.30    0.00
     18      9     38  700.00  300.00    0.30    0.00
     19     10     11 1000.00  250.00    0.30    0.00
     20     10     39  900.00  250.00    0.30    0.00
     21     11     12  500.00  300.00    0.30    0.00
     22     11     40  600.00  250.00    0.30    0.00
     23     12     13  200.00  150.00    0.30    0.00
     24     12     41  400.00  200.00    0.30    0.00
     25     13     14  600.00  100.00    0.30    0.00
     26     13     42  700.00  300.00    0.30    0.00
     27     14     15  800.00  100.00    0.30    0.00
     28     14     43  300.00  150.00    0.30    0.00
     29     15     16  900.00  250.00    0.30    0.00
     30     15     44  500.00  100.00    0.30    0.00
     31     16     17  600.00  100.00    0.30    0.00
     32     16     45  500.00  150.00    0.30    0.00
     33     17     18  300.00  150.00    0.30    0.00
     34     17     46  100.00  250.00    0.30    0.00
     35     18     19  100.00  150.00    0.30    0.00
     36     18     47  300.00  200.00    0.30    0.00
     37     19     20  800.00  200.00    0.30    0.00
     38     19     48  500.00  150.00    0.30    0.00
     39     20     21  400.00  300.00    0.30    0.00
     40     20     49  600.00  200.00    0.30    0.00
     41     21     22  300.00  100.00    0.30    0.00
     42     21     50  600.00  100.00    0.30    0.00
     43     22     23  200.00  200.00    0.30    0.00
     44     22     51  300.00  100.00    0.30    0.00
     45     23     24  400.00  250.00    0.30    0.00
     46     23     52 1000.00  250.00    0.30    0.00
     47     24     25  600.00  200.00    0.30    0.00
     48     24     53  400.00  200.00    0.30    0.00
     49     25     26  200.00  150.00    0.30    0.00
     50     25     54 1000.00  150.00    0.30    0.00
     51     26     27  600.00  300.00    0.30    0.00
     52     26     55  900.00  150.00    0.30    0.00
     53     27     28  400.00  150.00    0.30    0.00
     54     27     56  200.00  150.00    0.30    0.00
     55     28     29  700.00  300.00    0.30    0.00
     56     28     57  300.00  100.00    0.30    0.00
     57     29     58  800.00  300.00    0.30    0.00
     58     30     31  100.00  200.00    0.30    0.00
     59     30     59  600.00  300.00    0.30    0.00
     60     31     32  300.00  300.00    0.30    0.00
     61     31     60  200.00  200.00    0.30    0.00
     62     32     33  100.00  150.00    0.30    0.00
     63     32     61  500.00  250.00    0.30    0.00
     64     33     34  200.00  150.00    0.30    0.00
     65     33     62 1000.00  200.00    0.30    0.00
     66     34     35  200.00  150.00    0.30    0.00
     67     34     63 1000.00  200.00    0.30    0.00
     68     35     36 1000.00  250.00    0.30    0.00
     69     35     64  800.00  200.00    0.30    0.00
     70     36     37  900.00  300.00    0.30    0.00
     71     36     65  100.00  300.00    0.30    0.00
     72     37     38  400.00  150.00    0.30    0.00
     73     37     66  800.00  250.00    0.30    0.00
     74     38     39  500.00  150.00    0.30    0.00
     75     38     67  900.00  150.00    0.30    0.00
     76     39     40  200.00  300.00    0.30    0.00
     77     39     68  100.00  150.00    0.30    0.00
     78     40     41  500.00  150.00    0.30    0.00
     79     40     69  400.00  250.00    0.30    0.00
     80     41     42 1000.00  200.00    0.30    0.00
     81     41     70  300.00  200.00    0.30    0.00
     82     42     43  800.00  200.00    0.30    0.00
     83     42     71  600.00  200.00    0.30    0.00
     84     43     44  100.00  200.00    0.30    0.00
     85     43     72  600.00  100.00    0.30    0.00
     86     44     45  400.00  300.00    0.30    0.00
     87     44     73  100.00  100.00    0.30    0.00
     88     45     46  100.00  100.00    0.30    0.00
     89     45     74  500.00  150.00    0.30    0.00
     90     46     47  400.00  150.00    0.30    0.00
     91     46     75  500.00  200.00    0.30    0.00
     92     47     48  500.00  300.00    0.30    0.00
     93     47     76  800.00  300.00    0.30    0.00
     94     48     49  600.00  100.00    0.30    0.00
     95     48     77  400.00  100.00    0.30    0.00
     96     49     50  400.00  200.00    0.30    0.00
     97     49     78  400.00  300.00    0.30    0.00
     98     50     51  400.00  300.00    0.30    0.00
     99     50     79 1000.00  250.00    0.30    0.00
    100     51     52  100.00  200.00    0.30    0.00
    101     51     80  100.00  100.00    0.30    0.00
    102     52     53  500.00  200.00    0.30    0.00
    103     52     81  800.00  300.00    0.30    0.00
    104     53     54  800.00  100.00    0.30    0.00
    105     53     82 1000.00  300.00    0.30    0.00
    106     54     55  700.00  200.00    0.30    0.00
    107     54     83  500.00  300.00    0.30    0.00
    108     55     56  300.00  250.00    0.30    0.00
    109     55     84  900.00  250.00    0.30    0.00
    110     56     57 1000.00  200.00    0.30    0.00
    111     56     85  500.00  100.00    0.30    0.00
    112     57     58  300.00  200.00    0.30    0.00
    113     57     86  400.00  300.00    0.30    0.00
    114     58     87  600.00  200.00    0.30    0.00
    115     59     60  800.00  100.00    0.30    0.00
    116     59     88  100.00  300.00    0.30    0.00
    117     60     61  700.00  250.00    0.30    0.00
    118     60     89  900.00  100.00    0.30    0.00
    119     61     62  500.00  200.00    0.30    0.00
    120     61     90  600.00  250.00    0.30    0.00
    121     62     63 1000.00  200.00    0.30    0.00
    122     62     91  400.00  300.00    0.30    0.00
    123     63     64  600.00  300.00    0.30    0.00
    124     63     92  200.00  100.00    0.30    0.00
    125     64     65  200.00  250.00    0.30    0.00
    126     64     93  500.00  250.00    0.30    0.00
    127     65     66  100.00  250.00    0.30    0.00
    128     65     94 1000.00  250.00    0.30    0.00
    129     66     67  100.00  300.00    0.30    0.00
    130     66     95  700.00  200.00    0.30    0.00
    131     67     68 1000.00  200.00    0.30    0.00
    132     67     96  900.00  150.00    0.30    0.00
    133     68     69  900.00  300.00    0.30    0.00
    134     68     97  300.00  100.00    0.30    0.00
    135     69     70  200.00  300.00    0.30    0.00
    136     69     98  200.00  200.00    0.30    0.00
    137     70     71  300.00  100.00    0.30    0.00
    138     70     99 1000.00  200.00    0.30    0.00
    139     71     72  500.00  150.00    0.30    0.00
    140     71    100  900.00  150.00    0.30    0.00
    141     72     73  600.00  100.00    0.30    0.00
    142     72    101  900.00  100.00    0.30    0.00
    143     73     74  900.00  250.00    0.30    0.00
    144     73    102  800.00  300.00    0.30    0.00
    145     74     75  900.00  300.00    0.30    0.00
    146     74    103  100.00  250.00    0.30    0.00
    147     75     76  400.00  150.00    0.30    0.00
    148     75    104  200.00  200.00    0.30    0.00
    149     76     77  300.00  300.00    0.30    0.00
    150     76    105  800.00  250.00    0.30    0.00
    151     77     78  600.00  100.00    0.30    0.00
    152     77    106  400.00  150.00    0.30    0.00
    153     78     79  500.00  150.00    0.30    0.00
    154     78    107  900.00  200.00    0.30    0.00
    155     79     80  100.00  250.00    0.30    0.00
    156     79    108  800.00  200.00    0.30    0.00
    157     80     81  700.00  250.00    0.30    0.00
    158     80    109  100.00  300.00    0.30    0.00
    159     81     82 1000.00  200.00    0.30    0.00
    160     81    110  300.00  100.00    0.30    0.00
    161     82     83  900.00  200.00    0.30    0.00
    162     82    111  300.00  100.00    0.30    0.00
    163     83     84  500.00  300.00    0.30    0.00
    164     83    112  900.00  200.00    0.30    0.00
    165     84     85  400.00  250.00    0.30    0.00
    166     84    113  300.00  250.00    0.30    0.00
    167     85     86  900.00  250.00    0.30    0.00
    168     85    114  700.00  100.00    0.30    0.00
    169     86     87  200.00  200.00    0.30    0.00
    170     86    115  600.00  150.00    0.30    0.00
    171     87    116  400.00  100.00    0.30    0.00
    172     88     89  800.00  300.00    0.30    0.00
    173     88    117  600.00  300.00    0.30    0.00
    174     89     90  200.00  150.00    0.30    0.00
    175     89    118  400.00  250.00    0.30    0.00
    176     90     91  800.00  100.00    0.30    0.00
    177     90    119  200.00  300.00    0.30    0.00
    178     91     92  100.00  250.00    0.30    0.00
    179     91    120  300.00  250.00    0.30    0.00
    180     92     93  800.00  300.00    0.30    0.00
    181     92    121  900.00  300.00    0.30    0.00
    182     93     94  600.00  300.00    0.30    0.00
    183     93    122  300.00  300.00    0.30    0.00
    184     94     95  800.00  100.00    0.30    0.00
    185     94    123 1000.00  150.00    0.30    0.00
    186     95     96  100.00  100.00    0.30    0.00
    187     95    124  600.00  300.00    0.30    0.00
    188     96     97  800.00  150.00    0.30    0.00
    189     96    125  500.00  100.00    0.30    0.00
    190     97     98  600.00  200.00    0.30    0.00
    191     97    126  200.00  100.00    0.30    0.00
    192     98     99  600.00  250.00    0.30    0.00
    193     98    127  800.00  200.00    0.30    0.00
    194     99    100  300.00  150.00    0.30    0.00
    195     99    128  700.00  200.00    0.30    0.00
    196    100    101  700.00  150.00    0.30    0.00
    197    100    129  400.00  300.00    0.30    0.00
    198    101    102  800.00  300.00    0.30    0.00
    199    101    130  700.00  300.00    0.30    0.00
    200    102    103  300.00  100.00    0.30    0.00
    201    102    131  200.00  300.00    0.30    0.00
    202    103    104  100.00  150.00    0.30    0.00
    203    103    132  900.00  200.00    0.30    0.00
    204    104    105 1000.00  300.00    0.30    0.00
    205    104    133  800.00  100.00    0.30    0.00
    206    105    106  400.00  100.00    0.30    0.00
    207    105    134  800.00  150.00    0.30    0.00
    208    106    107  400.00  250.00    0.30    0.00
    209    106    135  400.00  100.00    0.30    0.00
    210    107    108  600.00  200.00    0.30    0.00
    211    107    136  600.00  300.00    0.30    0.00
    212    108    109  900.00  100.00    0.30    0.00
    213    108    137  900.00  200.00    0.30    0.00
    214    109    110  100.00  100.00    0.30    0.00
    215    109    138  400.00  250.00    0.30    0.00
    216    110    111  300.00  200.00    0.30    0.00
    217    110    139  700.00  150.00    0.30    0.00
    218    111    112  300.00  300.00    0.30    0.00
    219    111    140  900.00  150.00    0.30    0.00
    220    112    113  200.00  300.00    0.30    0.00
    221    112    141  200.00  200.00    0.30    0.00
    222    113    114  500.00  150.00    0.30    0.00
    223    113    142  500.00  200.00    0.30    0.00
    224    114    115  500.00  200.00    0.30    0.00
    225    114    143  800.00  300.00    0.30    0.00
    226    115    116  900.00  200.00    0.30    0.00
    227    115    144  200.00  100.00    0.30    0.00
    228    116    145  900.00  200.00    0.30    0.00
    229    117    118  600.00  200.00    0.30    0.00
    230    117    146  300.00  250.00    0.30    0.00
    231    118    119  700.00  300.00    0.30    0.00
    232    118    147  600.00  250.00    0.30    0.00
    233    119    120  300.00  250.00    0.30    0.00
    234    119    148  900.00  100.00    0.30    0.00
    235    120    121  700.00  100.00    0.30    0.00
    236    120    149  600.00  150.00    0.30    0.00
    237    121    122  600.00  200.00    0.30    0.00
    238    121    150  800.00  150.00    0.30    0.00
    239    122    123  100.00  250.00    0.30    0.00
    240    122    151 1000.00  300.00    0.30    0.00
    241    123    124  300.00  100.00    0.30    0.00
    242    123    152  300.00  200.00    0.30    0.00
    243    124    125  400.00  150.00    0.30    0.00
    244    124    153  200.00  150.00    0.30    0.00
    245    125    126  700.00  300.00    0.30    0.00
    246    125    154 1000.00  300.00    0.30    0.00
    247    126    127 1000.00  250.00    0.30    0.00
    248    126    155  500.00  150.00    0.30    0.00
    249    127    128  700.00  250.00    0.30    0.00
    250    127    156  300.00  150.00    0.30    0.00
    251    128    129  300.00  300.00    0.30    0.00
    252    128    157  500.00  150.00    0.30    0.00
    253    129    130  600.00  250.00    0.30    0.00
    254    129    158  700.00  300.00    0.30    0.00
    255    130    131  200.00  200.00    0.30    0.00
    256    130    159  100.00  100.00    0.30    0.00
    257    131    132  400.00  250.00    0.30    0.00
    258    131    160  300.00  150.00    0.30    0.00
    259    132    133 1000.00  250.00    0.30    0.00
    260    132    161 1000.00  150.00    0.30    0.00
    261    133    134  200.00  200.00    0.30    0.00
    262    133    162  700.00  200.00    0.30    0.00
    263    134    135  700.00  100.00    0.30    0.00
    264    134    163  100.00  200.00    0.30    0.00
    265    135    136  600.00  300.00    0.30    0.00
    266    135    164  400.00  200.00    0.30    0.00
    267    136    137  700.00  300.00    0.30    0.00
    268    136    165  300.00  150.00    0.30    0.00
    269    137    138  900.00  100.00    0.30    0.00
    270    137    166  100.00  250.00    0.30    0.00
    271    138    139  900.00  300.00    0.30    0.00
    272    138    167  700.00  200.00    0.30    0.00
    273    139    140  100.00  200.00    0.30    0.00
    274    139    168  300.00  250.00    0.30    0.00
    275    140    141  800.00  300.00    0.30    0.00
    276    140    169  800.00  150.00    0.30    0.00
    277    141    142  300.00  100.00    0.30    0.00
    278    141    170  900.00  200.00    0.30    0.00
    279    142    143  500.00  250.00    0.30    0.00
    280    142    171  400.00  250.00    0.30    0.00
    281    143    144  300.00  200.00    0.30    0.00
    282    143    172  200.00  300.00    0.30    0.00
    283    144    145  300.00  100.00    0.30    0.00
    284    144    173  800.00  100.00    0.30    0.00
    285    145    174  300.00  200.00    0.30    0.00
    286    146    147  600.00  250.00    0.30    0.00
    287    146    175  300.00  250.00    0.30    0.00
    288    147    148  100.00  150.00    0.30    0.00
    289    147    176  300.00  200.00    0.30    0.00
    290    148    149  300.00  200.00    0.30    0.00
    291    148    177  900.00  150.00    0.30    0.00
    292    149    150  800.00  150.00    0.30    0.00
    293    149    178  200.00  100.00    0.30    0.00
    294    150    151  300.00  200.00    0.30    0.00
    295    150    179  300.00  250.00    0.30    0.00
    296    151    152  400.00  150.00    0.30    0.00
    297    151    180  900.00  200.00    0.30    0.00
    298    152    153  800.00  100.00    0.30    0.00
    299    152    181  700.00  250.00    0.30    0.00
    300    153    154  700.00  300.00    0.30    0.00
    301    153    182  800.00  300.00    0.30    0.00
    302    154    155  100.00  300.00    0.30    0.00
    303    154    183  200.00  250.00    0.30    0.00
    304    155    156  200.00  250.00    0.30    0.00
    305    155    184 1000.00  200.00    0.30    0.00
    306    156    157  200.00  200.00    0.30    0.00
    307    156    185  100.00  200.00    0.30    0.00
    308    157    158  800.00  150.00    0.30    0.00
    309    157    186  500.00  150.00    0.30    0.00
    310    158    159  800.00  200.00    0.30    0.00
    311    158    187  700.00  300.00    0.30    0.00
    312    159    160  400.00  300.00    0.30    0.00
    313    159    188 1000.00  200.00    0.30    0.00
    314    160    161  500.00  150.00    0.30    0.00
    315    160    189  300.00  250.00    0.30    0.00
    316    161    162  700.00  300.00    0.30    0.00
    317    161    190  500.00  300.00    0.30    0.00
    318    162    163  600.00  150.00    0.30    0.00
    319    162    191  800.00  150.00    0.30    0.00
    320    163    164  600.00  250.00    0.30    0.00
    321    163    192 1000.00  200.00    0.30    0.00
    322    164    165  100.00  200.00    0.30    0.00
    323    164    193  600.00  200.00    0.30    0.00
    324    165    166  100.00  300.00    0.30    0.00
    325    165    194  800.00  200.00    0.30    0.00
    326    166    167  800.00  250.00    0.30    0.00
    327    166    195  300.00  100.00    0.30    0.00
    328    167    168  800.00  100.00    0.30    0.00
    329    167    196  200.00  200.00    0.30    0.00
    330    168    169  400.00  200.00    0.30    0.00
    331    168    197  300.00  100.00    0.30    0.00
    332    169    170  400.00  200.00    0.30    0.00
    333    169    198  800.00  300.00    0.30    0.00
    334    170    171  100.00  200.00    0.30    0.00
    335    170    199  800.00  200.00    0.30    0.00
    336    171    172  700.00  250.00    0.30    0.00