[TITLE]
;--------------------------------
; Job Description
;--------------------------------
Random network   5 by   7 nodes    

[JUNCTIONS]
;--------------------------------------
;   ID   Elevation   Demand   (Pattern)
;--------------------------------------
     2   0.0   5.0
     3   0.0   3.0
     4   0.0   2.0
     5   0.0   3.0
     6   0.0   0.0
     7   0.0   8.0
     8   0.0   9.0
     9   0.0   9.0
    10   0.0   9.0
    11   0.0   8.0
    12   0.0   6.0
    13   0.0   3.0
    14   0.0   8.0
    15   0.0   8.0
    16   0.0   4.0
    17   0.0   9.0
    18   0.0   3.0
    19   0.0   6.0
    20   0.0   9.0
    21   0.0   5.0
    22   0.0   3.0
    23   0.0   9.0
    24   0.0   8.0
    25   0.0   8.0
    26   0.0   8.0
    27   0.0   8.0
    28   0.0   8.0
    29   0.0   0.0
    30   0.0   2.0
    31   0.0   0.0
    32   0.0   4.0
    33   0.0   2.0
    34   0.0   2.0
    35   0.0   5.0

[TANKS]
;------------------
;          Initial
;   ID      Level
;------------------
      1 240.0

[PIPES]
;---------------------------------------------------
;      ID  Start  End    L     D     Rough Minor K  
;---------------------------------------------------
      1      1      2  300.00  250.00    0.30    0.00
      2      1      6  900.00  250.00    0.30    0.00
      3      2      3  100.00  200.00    0.30    0.00
      4      2      7  200.00  200.00    0.30    0.00
      5      3      4  700.00  300.00    0.30    0.00
      6      3      8  800.00  300.00    0.30    0.00
      7      4      5  900.00  250.00    0.30    0.00
      8      4      9  300.00  200.00    0.30    0.00
      9      5     10  600.00  200.00    0.30    0.00
     10      6      7  100.00  250.00    0.30    0.00
     11      6     11  600.00  200.00    0.30    0.00
     12      7      8  300.00  200.00    0.30    0.00
     13      7     12 1000.00  250.00    0.30    0.00
     14      8      9  600.00  150.00    0.30    0.00
     15      8     13  700.00  300.00    0.30    0.00
     16      9     10  400.00  150.00    0.30    0.00
     17      9     14  600.00  250.00    0.30    0.00
     18     10     15  400.00  300.00    0.30    0.00
     19     11     12  600.00  300.00    0.30    0.00
     20     11     16  100.00  300.00    0.30    0.00
     21     12     13  400.00  250.00    0.30    0.00
     22     12     17  400.00  100.00    0.30    0.00
     23     13     14  900.00  300.00    0.30    0.00
     24     13     18  600.00  150.00    0.30    0.00
     25     14     15  500.00  150.00    0.30    0.00
     26     14     19  800.00  300.00    0.30    0.00
     27     15     20  900.00  250.00    0.30    0.00
     28     16     17 1000.00  150.00    0.30    0.00
     29     16     21  900.00  200.00    0.30    0.00
     30     17     18 1000.00  100.00    0.30    0.00
     31     17     22  100.00  250.00    0.30    0.00
     32     18     19 1000.00  100.00    0.30    0.00
     33     18     23  200.00  150.00    0.30    0.00
     34     19     20  600.00  100.00    0.30    0.00
     35     19     24  700.00  150.00    0.30    0.00
     36     20     25  200.00  200.00    0.30    0.00
     37     21     22  300.00  300.00    0.30    0.00
     38     21     26  400.00  100.00    0.30    0.00
     39     22     23  800.00  100.00    0.30    0.00
     40     22     27  300.00  300.00    0.30    0.00
     41     23     24  300.00  100.00    0.30    0.00
     42     23     28  200.00  300.00    0.30    0.00
     43     24     25  200.00  300.00    0.30    0.00
     44     24     29  600.00  150.00    0.30    0.00
     45     25     30  100.00  250.00    0.30    0.00
     46     26     27  200.00  100.00    0.30    0.00
     47     26     31  800.00  150.00    0.30    0.00
     48     27     28  200.00  150.00    0.30    0.00
     49     27     32  200.00  250.00    0.30    0.00
     50     28     29  100.00  100.00    0.30    0.00
     51     28     33  500.00  300.00    0.30    0.00
     52     29     30  600.00  200.00    0.30    0.00
     53     29     34  500.00  300.00    0.30    0.00
     54     30     35  600.00  150.00    0.30    0.00
     55     31     32  400.00  100.00    0.30    0.00
     56     32     33  600.00  150.00    0.30    0.00
     57     33     34  300.00  300.00    0.30    0.00
     58     34     35  300.00  200.00    0.30    0.00

[VALVES]
;---------------------------------------------------
;      ID  Start  End   TYPE   D  Set head Minor K  
;---------------------------------------------------

[STATUS]
;----------------
; Link  Setting  
;----------------

[CONTROLS]

[TIMES]

[OPTIONS]
  UNITS    SI
  HEADLOSS    D-W
  ACCURACY       0.1000000013351432E-09
  MAP   z0000058.map

[REPORT]
  LINK NONE

[END]
