[TITLE]
;--------------------------------
; Job Description
;--------------------------------
Random network  21 by  14 nodes    

[JUNCTIONS]
;--------------------------------------
;   ID   Elevation   Demand   (Pattern)
;--------------------------------------
     2   0.0   5.0
     3   0.0   3.0
     4   0.0   2.0
     5   0.0   3.0
     6   0.0   0.0
     7   0.0   8.0
     8   0.0   9.0
     9   0.0   9.0
    10   0.0   9.0
    11   0.0   8.0
    12   0.0   6.0
    13   0.0   3.0
    14   0.0   8.0
    15   0.0   8.0
    16   0.0   4.0
    17   0.0   9.0
    18   0.0   3.0
    19   0.0   6.0
    20   0.0   9.0
    21   0.0   5.0
    22   0.0   3.0
    23   0.0   9.0
    24   0.0   8.0
    25   0.0   8.0
    26   0.0   8.0
    27   0.0   8.0
    28   0.0   8.0
    29   0.0   0.0
    30   0.0   2.0
    31   0.0   0.0
    32   0.0   4.0
    33   0.0   2.0
    34   0.0   2.0
    35   0.0   5.0
    36   0.0   2.0
    37   0.0   6.0
    38   0.0   6.0
    39   0.0   0.0
    40   0.0   5.0
    41   0.0   2.0
    42   0.0   6.0
    43   0.0   8.0
    44   0.0   3.0
    45   0.0   8.0
    46   0.0   4.0
    47   0.0   1.0
    48   0.0   5.0
    49   0.0   6.0
    50   0.0   5.0
    51   0.0   5.0
    52   0.0   5.0
    53   0.0   3.0
    54   0.0   9.0
    55   0.0   3.0
    56   0.0   4.0
    57   0.0   6.0
    58   0.0   3.0
    59   0.0   0.0
    60   0.0   5.0
    61   0.0   8.0
    62   0.0   0.0
    63   0.0   5.0
    64   0.0   9.0
    66   0.0   3.0
    67   0.0   1.0
    68   0.0   1.0
    69   0.0   8.0
    70   0.0   2.0
    71   0.0   9.0
    72   0.0   4.0
    73   0.0   9.0
    74   0.0   0.0
    75   0.0   8.0
    76   0.0   2.0
    77   0.0   1.0
    78   0.0   8.0
    79   0.0   1.0
    80   0.0   3.0
    81   0.0   0.0
    82   0.0   0.0
    83   0.0   6.0
    84   0.0   1.0
    85   0.0   1.0
    86   0.0   5.0
    87   0.0   6.0
    88   0.0   5.0
    89   0.0   8.0
    90   0.0   2.0
    91   0.0   0.0
    92   0.0   3.0
    93   0.0   7.0
    94   0.0   9.0
    95   0.0   4.0
    96   0.0   2.0
    97   0.0   8.0
    98   0.0   5.0
    99   0.0   1.0
   100   0.0   2.0
   101   0.0   4.0
   102   0.0   0.0
   103   0.0   0.0
   104   0.0   7.0
   105   0.0   7.0
   106   0.0   3.0
   107   0.0   9.0
   108   0.0   1.0
   109   0.0   1.0
   110   0.0   5.0
   111   0.0   4.0
   112   0.0   4.0
   113   0.0   5.0
   114   0.0   4.0
   115   0.0   3.0
   116   0.0   0.0
   117   0.0   3.0
   119   0.0   3.0
   120   0.0   2.0
   121   0.0   5.0
   122   0.0   8.0
   124   0.0   5.0
   125   0.0   4.0
   126   0.0   2.0
   127   0.0   5.0
   128   0.0   5.0
   129   0.0   0.0
   130   0.0   9.0
   131   0.0   3.0
   132   0.0   8.0
   133   0.0   3.0
   134   0.0   4.0
   135   0.0   3.0
   136   0.0   6.0
   137   0.0   5.0
   138   0.0   5.0
   139   0.0   1.0
   140   0.0   0.0
   141   0.0   2.0
   142   0.0   0.0
   143   0.0   5.0
   144   0.0   6.0
   145   0.0   8.0
   146   0.0   9.0
   147   0.0   2.0
   148   0.0   4.0
   149   0.0   7.0
   150   0.0   3.0
   151   0.0   7.0
   152   0.0   2.0
   153   0.0   2.0
   154   0.0   4.0
   155   0.0   5.0
   156   0.0   5.0
   157   0.0   5.0
   158   0.0   9.0
   159   0.0   6.0
   160   0.0   6.0
   161   0.0   6.0
   162   0.0   3.0
   163   0.0   8.0
   164   0.0   2.0
   165   0.0   1.0
   166   0.0   7.0
   167   0.0   1.0
   168   0.0   0.0
   169   0.0   5.0
   170   0.0   4.0
   171   0.0   6.0
   172   0.0   1.0
   173   0.0   2.0
   174   0.0   9.0
   175   0.0   9.0
   176   0.0   7.0
   177   0.0   8.0
   178   0.0   5.0
   179   0.0   2.0
   180   0.0   1.0
   181   0.0   0.0
   182   0.0   5.0
   183   0.0   0.0
   184   0.0   9.0
   185   0.0   6.0
   186   0.0   0.0
   187   0.0   2.0
   188   0.0   0.0
   189   0.0   5.0
   190   0.0   2.0
   191   0.0   5.0
   192   0.0   8.0
   193   0.0   2.0
   194   0.0   8.0
   195   0.0   7.0
   196   0.0   4.0
   197   0.0   8.0
   198   0.0   9.0
   199   0.0   9.0
   200   0.0   9.0
   201   0.0   0.0
   202   0.0   5.0
   203   0.0   3.0
   204   0.0   4.0
   205   0.0   1.0
   206   0.0   6.0
   207   0.0   8.0
   208   0.0   9.0
   209   0.0   3.0
   210   0.0   9.0
   211   0.0   4.0
   212   0.0   6.0
   213   0.0   3.0
   214   0.0   0.0
   215   0.0   5.0
   216   0.0   5.0
   217   0.0   9.0
   218   0.0   4.0
   219   0.0   7.0
   220   0.0   2.0
   221   0.0   5.0
   222   0.0   7.0
   223   0.0   8.0
   224   0.0   4.0
   225   0.0   3.0
   226   0.0   4.0
   227   0.0   4.0
   228   0.0   2.0
   229   0.0   3.0
   230   0.0   1.0
   231   0.0   2.0
   232   0.0   5.0
   233   0.0   3.0
   234   0.0   0.0
   235   0.0   4.0
   236   0.0   2.0
   237   0.0   8.0
   238   0.0   6.0
   239   0.0   5.0
   240   0.0   8.0
   241   0.0   1.0
   242   0.0   6.0
   243   0.0   8.0
   244   0.0   5.0
   245   0.0   2.0
   246   0.0   3.0
   247   0.0   4.0
   248   0.0   4.0
   249   0.0   9.0
   250   0.0   4.0
   251   0.0   5.0
   252   0.0   5.0
   253   0.0   4.0
   254   0.0   1.0
   255   0.0   5.0
   256   0.0   4.0
   257   0.0   0.0
   258   0.0   4.0
   259   0.0   7.0
   260   0.0   4.0
   261   0.0   0.0
   262   0.0   2.0
   263   0.0   7.0
   264   0.0   9.0
   265   0.0   7.0
   266   0.0   2.0
   267   0.0   6.0
   268   0.0   4.0
   269   0.0   8.0
   270   0.0   7.0
   271   0.0   3.0
   272   0.0   9.0
   273   0.0   7.0
   274   0.0   1.0
   275   0.0   4.0
   276   0.0   8.0
   277   0.0   2.0
   278   0.0   7.0
   279   0.0   2.0
   280   0.0   9.0
   281   0.0   6.0
   282   0.0   3.0
   283   0.0   5.0
   284   0.0   4.0
   285   0.0   8.0
   286   0.0   4.0
   287   0.0   8.0
   288   0.0   8.0
   289   0.0   9.0
   290   0.0   0.0
   291   0.0   0.0
   292   0.0   0.0
   293   0.0   5.0
   294   0.0   9.0

[TANKS]
;------------------
;          Initial
;   ID      Level
;------------------
      1 240.0
     65 200.0
    118 160.0
    123 180.0

[PIPES]
;---------------------------------------------------
;      ID  Start  End    L     D     Rough Minor K  
;---------------------------------------------------
      1      1      2  400.00  250.00    0.30    0.00
      2      1     22  900.00  300.00    0.30    0.00
      3      2      3  600.00  150.00    0.30    0.00
      4      2     23  900.00  150.00    0.30    0.00
      5      3      4  600.00  200.00    0.30    0.00
      6      3     24  600.00  100.00    0.30    0.00
      7      4      5  400.00  300.00    0.30    0.00
      8      4     25  200.00  300.00    0.30    0.00
      9      5      6  100.00  250.00    0.30    0.00
     10      5     26  600.00  100.00    0.30    0.00
     11      6      7  300.00  200.00    0.30    0.00
     12      6     27  500.00  150.00    0.30    0.00
     13      7      8 1000.00  150.00    0.30    0.00
     14      7     28  400.00  200.00    0.30    0.00
     15      8      9  300.00  150.00    0.30    0.00
     16      8     29  100.00  300.00    0.30    0.00
     17      9     10  500.00  300.00    0.30    0.00
     18      9     30  600.00  300.00    0.30    0.00
     19     10     11  400.00  300.00    0.30    0.00
     20     10     31  300.00  100.00    0.30    0.00
     21     11     12  600.00  150.00    0.30    0.00
     22     11     32  900.00  300.00    0.30    0.00
     23     12     13  200.00  250.00    0.30    0.00
     24     12     33  500.00  250.00    0.30    0.00
     25     13     14  200.00  100.00    0.30    0.00
     26     13     34  600.00  150.00    0.30    0.00
     27     14     15  400.00  100.00    0.30    0.00
     28     14     35  800.00  200.00    0.30    0.00
     29     15     16  300.00  250.00    0.30    0.00
     30     15     36 1000.00  200.00    0.30    0.00
     31     16     17  300.00  300.00    0.30    0.00
     32     16     37  300.00  250.00    0.30    0.00
     33     17     18  700.00  200.00    0.30    0.00
     34     17     38  400.00  100.00    0.30    0.00
     35     18     19 1000.00  250.00    0.30    0.00
     36     18     39  700.00  200.00    0.30    0.00
     37     19     20 1000.00  200.00    0.30    0.00
     38     19     40  200.00  250.00    0.30    0.00
     39     20     21  900.00  200.00    0.30    0.00
     40     20     41  700.00  250.00    0.30    0.00
     41     21     42  900.00  100.00    0.30    0.00
     42     22     23  100.00  250.00    0.30    0.00
     43     22     43  500.00  250.00    0.30    0.00
     44     23     24  900.00  200.00    0.30    0.00
     45     23     44  600.00  200.00    0.30    0.00
     46     24     25  200.00  250.00    0.30    0.00
     47     24     45  700.00  300.00    0.30    0.00
     48     25     26  700.00  250.00    0.30    0.00
     49     25     46  800.00  250.00    0.30    0.00
     50     26     27  900.00  250.00    0.30    0.00
     51     26     47  500.00  200.00    0.30    0.00
     52     27     28  400.00  300.00    0.30    0.00
     53     27     48  100.00  250.00    0.30    0.00
     54     28     29  700.00  250.00    0.30    0.00
     55     28     49  300.00  300.00    0.30    0.00
     56     29     30  900.00  250.00    0.30    0.00
     57     29     50  900.00  200.00    0.30    0.00
     58     30     31  300.00  150.00    0.30    0.00
     59     30     51  600.00  150.00    0.30    0.00
     60     31     32  300.00  250.00    0.30    0.00
     61     31     52  300.00  300.00    0.30    0.00
     62     32     33  600.00  200.00    0.30    0.00
     63     32     53  300.00  200.00    0.30    0.00
     64     33     34  800.00  250.00    0.30    0.00
     65     33     54  100.00  150.00    0.30    0.00
     66     34     35 1000.00  100.00    0.30    0.00
     67     34     55  900.00  150.00    0.30    0.00
     68     35     36  400.00  200.00    0.30    0.00
     69     35     56  600.00  200.00    0.30    0.00
     70     36     37  700.00  300.00    0.30    0.00
     71     36     57  700.00  300.00    0.30    0.00
     72     37     38  400.00  200.00    0.30    0.00
     73     37     58 1000.00  150.00    0.30    0.00
     74     38     39  600.00  100.00    0.30    0.00
     75     38     59  600.00  250.00    0.30    0.00
     76     39     40 1000.00  250.00    0.30    0.00
     77     39     60  200.00  150.00    0.30    0.00
     78     40     41  400.00  100.00    0.30    0.00
     79     40     61  700.00  150.00    0.30    0.00
     80     41     42  400.00  300.00    0.30    0.00
     81     41     62  100.00  150.00    0.30    0.00
     82     42     63  200.00  200.00    0.30    0.00
     83     43     44  500.00  150.00    0.30    0.00
     84     43     64  600.00  250.00    0.30    0.00
     85     44     45 1000.00  150.00    0.30    0.00
     86     44     65 1000.00  100.00    0.30    0.00
     87     45     46  400.00  250.00    0.30    0.00
     88     45     66  300.00  250.00    0.30    0.00
     89     46     47  500.00  200.00    0.30    0.00
     90     46     67  500.00  150.00    0.30    0.00
     91     47     48  600.00  100.00    0.30    0.00
     92     47     68  500.00  300.00    0.30    0.00
     93     48     49  200.00  150.00    0.30    0.00
     94     48     69  900.00  300.00    0.30    0.00
     95     49     50  400.00  100.00    0.30    0.00
     96     49     70  800.00  200.00    0.30    0.00
     97     50     51 1000.00  250.00    0.30    0.00
     98     50     71  400.00  200.00    0.30    0.00
     99     51     52  100.00  150.00    0.30    0.00
    100     51     72 1000.00  200.00    0.30    0.00
    101     52     53  700.00  200.00    0.30    0.00
    102     52     73  700.00  250.00    0.30    0.00
    103     53     54 1000.00  300.00    0.30    0.00
    104     53     74  700.00  250.00    0.30    0.00
    105     54     55  400.00  250.00    0.30    0.00
    106     54     75  700.00  300.00    0.30    0.00
    107     55     56  700.00  100.00    0.30    0.00
    108     55     76  900.00  150.00    0.30    0.00
    109     56     57 1000.00  150.00    0.30    0.00
    110     56     77  800.00  250.00    0.30    0.00
    111     57     58  100.00  300.00    0.30    0.00
    112     57     78 1000.00  100.00    0.30    0.00
    113     58     59  300.00  100.00    0.30    0.00
    114     58     79 1000.00  100.00    0.30    0.00
    115     59     60  300.00  200.00    0.30    0.00
    116     59     80  900.00  100.00    0.30    0.00
    117     60     61  900.00  200.00    0.30    0.00
    118     60     81  400.00  150.00    0.30    0.00
    119     61     62  800.00  300.00    0.30    0.00
    120     61     82  200.00  200.00    0.30    0.00
    121     62     63  700.00  200.00    0.30    0.00
    122     62     83  400.00  200.00    0.30    0.00
    123     63     84  300.00  100.00    0.30    0.00
    124     64     65  400.00  300.00    0.30    0.00
    125     64     85  900.00  250.00    0.30    0.00
    126     65     66  800.00  250.00    0.30    0.00
    127     65     86  200.00  250.00    0.30    0.00
    128     66     67  500.00  250.00    0.30    0.00
    129     66     87  500.00  200.00    0.30    0.00
    130     67     68  300.00  150.00    0.30    0.00
    131     67     88  600.00  200.00    0.30    0.00
    132     68     69  500.00  100.00    0.30    0.00
    133     68     89  900.00  200.00    0.30    0.00
    134     69     70  600.00  250.00    0.30    0.00
    135     69     90  600.00  300.00    0.30    0.00
    136     70     71  700.00  100.00    0.30    0.00
    137     70     91  600.00  200.00    0.30    0.00
    138     71     72  400.00  200.00    0.30    0.00
    139     71     92  100.00  100.00    0.30    0.00
    140     72     73  100.00  150.00    0.30    0.00
    141     72     93  800.00  100.00    0.30    0.00
    142     73     74  700.00  250.00    0.30    0.00
    143     73     94  400.00  150.00    0.30    0.00
    144     74     75  500.00  100.00    0.30    0.00
    145     74     95  900.00  100.00    0.30    0.00
    146     75     76  400.00  300.00    0.30    0.00
    147     75     96  100.00  300.00    0.30    0.00
    148     76     77  900.00  200.00    0.30    0.00
    149     76     97  600.00  200.00    0.30    0.00
    150     77     78  300.00  150.00    0.30    0.00
    151     77     98 1000.00  150.00    0.30    0.00
    152     78     79  700.00  300.00    0.30    0.00
    153     78     99  900.00  250.00    0.30    0.00
    154     79     80  200.00  250.00    0.30    0.00
    155     79    100  200.00  250.00    0.30    0.00
    156     80     81  600.00  300.00    0.30    0.00
    157     80    101  100.00  250.00    0.30    0.00
    158     81     82 1000.00  150.00    0.30    0.00
    159     81    102  700.00  100.00    0.30    0.00
    160     82     83  300.00  100.00    0.30    0.00
    161     82    103  800.00  200.00    0.30    0.00
    162     83     84  600.00  250.00    0.30    0.00
    163     83    104  100.00  300.00    0.30    0.00
    164     84    105  800.00  300.00    0.30    0.00
    165     85     86  800.00  100.00    0.30    0.00
    166     85    106  300.00  150.00    0.30    0.00
    167     86     87  600.00  300.00    0.30    0.00
    168     86    107  400.00  300.00    0.30    0.00
    169     87     88  200.00  200.00    0.30    0.00
    170     87    108  400.00  200.00    0.30    0.00
    171     88     89  200.00  250.00    0.30    0.00
    172     88    109  600.00  100.00    0.30    0.00
    173     89     90 1000.00  150.00    0.30    0.00
    174     89    110  700.00  250.00    0.30    0.00
    175     90     91 1000.00  100.00    0.30    0.00
    176     90    111  800.00  250.00    0.30    0.00
    177     91     92 1000.00  150.00    0.30    0.00
    178     91    112  900.00  150.00    0.30    0.00
    179     92     93  600.00  100.00    0.30    0.00
    180     92    113  400.00  250.00    0.30    0.00
    181     93     94  200.00  250.00    0.30    0.00
    182     93    114  700.00  200.00    0.30    0.00
    183     94     95  800.00  250.00    0.30    0.00
    184     94    115  800.00  150.00    0.30    0.00
    185     95     96  600.00  300.00    0.30    0.00
    186     95    116  100.00  300.00    0.30    0.00
    187     96     97  800.00  150.00    0.30    0.00
    188     96    117  200.00  300.00    0.30    0.00
    189     97     98  500.00  250.00    0.30    0.00
    190     97    118  100.00  300.00    0.30    0.00
    191     98     99  500.00  200.00    0.30    0.00
    192     98    119  600.00  300.00    0.30    0.00
    193     99    100  300.00  150.00    0.30    0.00
    194     99    120  400.00  200.00    0.30    0.00
    195    100    101  900.00  200.00    0.30    0.00
    196    100    121  600.00  150.00    0.30    0.00
    197    101    102 1000.00  100.00    0.30    0.00
    198    101    122  700.00  200.00    0.30    0.00
    199    102    103  500.00  200.00    0.30    0.00
    200    102    123  200.00  250.00    0.30    0.00
    201    103    104  300.00  300.00    0.30    0.00
    202    103    124  500.00  250.00    0.30    0.00
    203    104    105  300.00  300.00    0.30    0.00
    204    104    125  900.00  300.00    0.30    0.00
    205    105    126  700.00  150.00    0.30    0.00
    206    106    107  800.00  300.00    0.30    0.00
    207    106    127  900.00  250.00    0.30    0.00
    208    107    108 1000.00  250.00    0.30    0.00
    209    107    128  400.00  200.00    0.30    0.00
    210    108    109  600.00  100.00    0.30    0.00
    211    108    129  400.00  250.00    0.30    0.00
    212    109    110  300.00  150.00    0.30    0.00
    213    109    130  200.00  300.00    0.30    0.00
    214    110    111  200.00  100.00    0.30    0.00
    215    110    131  500.00  100.00    0.30    0.00
    216    111    112  500.00  150.00    0.30    0.00
    217    111    132 1000.00  150.00    0.30    0.00
    218    112    113  600.00  300.00    0.30    0.00
    219    112    133  300.00  300.00    0.30    0.00
    220    113    114  900.00  150.00    0.30    0.00
    221    113    134 1000.00  150.00    0.30    0.00
    222    114    115  700.00  200.00    0.30    0.00
    223    114    135 1000.00  200.00    0.30    0.00
    224    115    116  700.00  250.00    0.30    0.00
    225    115    136  500.00  100.00    0.30    0.00
    226    116    117  400.00  250.00    0.30    0.00
    227    116    137  600.00  300.00    0.30    0.00
    228    117    118  700.00  200.00    0.30    0.00
    229    117    138  200.00  300.00    0.30    0.00
    230    118    119  100.00  300.00    0.30    0.00
    231    118    139  500.00  150.00    0.30    0.00
    232    119    120  800.00  200.00    0.30    0.00
    233    119    140  900.00  300.00    0.30    0.00
    234    120    121  500.00  150.00    0.30    0.00
    235    120    141  800.00  300.00    0.30    0.00
    236    121    122  300.00  100.00    0.30    0.00
    237    121    142  300.00  300.00    0.30    0.00
    238    122    123  600.00  250.00    0.30    0.00
    239    122    143  300.00  200.00    0.30    0.00
    240    123    124  800.00  100.00    0.30    0.00
    241    123    144  900.00  300.00    0.30    0.00
    242    124    125  800.00  100.00    0.30    0.00
    243    124    145  300.00  100.00    0.30    0.00
    244    125    126  600.00  200.00    0.30    0.00
    245    125    146 1000.00  150.00    0.30    0.00
    246    126    147  600.00  250.00    0.30    0.00
    247    127    128  400.00  200.00    0.30    0.00
    248    127    148  500.00  150.00    0.30    0.00
    249    128    129  100.00  200.00    0.30    0.00
    250    128    149  900.00  100.00    0.30    0.00
    251    129    130  200.00  150.00    0.30    0.00
    252    129    150  200.00  300.00    0.30    0.00
    253    130    131  900.00  200.00    0.30    0.00
    254    130    151  600.00  200.00    0.30    0.00
    255    131    132  300.00  100.00    0.30    0.00
    256    131    152  400.00  300.00    0.30    0.00
    257    132    133  400.00  100.00    0.30    0.00
    258    132    153  100.00  300.00    0.30    0.00
    259    133    134  200.00  150.00    0.30    0.00
    260    133    154  100.00  200.00    0.30    0.00
    261    134    135 1000.00  250.00    0.30    0.00
    262    134    155  800.00  250.00    0.30    0.00
    263    135    136  400.00  250.00    0.30    0.00
    264    135    156  600.00  150.00    0.30    0.00
    265    136    137  900.00  250.00    0.30    0.00
    266    136    157  100.00  300.00    0.30    0.00
    267    137    138  900.00  250.00    0.30    0.00
    268    137    158  100.00  200.00    0.30    0.00
    269    138    139  400.00  100.00    0.30    0.00
    270    138    159  300.00  150.00    0.30    0.00
    271    139    140  500.00  100.00    0.30    0.00
    272    139    160  200.00  300.00    0.30    0.00
    273    140    141  600.00  250.00    0.30    0.00
    274    140    161  700.00  300.00    0.30    0.00
    275    141    142  800.00  200.00    0.30    0.00
    276    141    162  500.00  150.00    0.30    0.00
    277    142    143 1000.00  250.00    0.30    0.00
    278    142    163  600.00  300.00    0.30    0.00
    279    143    144  800.00  150.00    0.30    0.00
    280    143    164  100.00  150.00    0.30    0.00
    281    144    145  900.00  100.00    0.30    0.00
    282    144    165  400.00  250.00    0.30    0.00
    283    145    146 1000.00  300.00    0.30    0.00
    284    145    166  100.00  100.00    0.30    0.00
    285    146    147  500.00  100.00    0.30    0.00
    286    146    167  300.00  200.00    0.30    0.00
    287    147    168  400.00  250.00    0.30    0.00
    288    148    149  200.00  300.00    0.30    0.00
    289    148    169 1000.00  100.00    0.30    0.00
    290    149    150  200.00  300.00    0.30    0.00
    291    149    170  500.00  250.00    0.30    0.00
    292    150    151 1000.00  300.00    0.30    0.00
    293    150    171  100.00  200.00    0.30    0.00
    294    151    152  500.00  100.00    0.30    0.00
    295    151    172  100.00  300.00    0.30    0.00
    296    152    153  300.00  300.00    0.30    0.00
    297    152    173  600.00  150.00    0.30    0.00
    298    153    154  800.00  150.00    0.30    0.00
    299    153    174  200.00  150.00    0.30    0.00
    300    154    155  600.00  200.00    0.30    0.00
    301    154    175  500.00  250.00    0.30    0.00
    302    155    156  300.00  150.00    0.30    0.00
    303    155    176  300.00  150.00    0.30    0.00
    304    156    157  600.00  100.00    0.30    0.00
    305    156    177  500.00  100.00    0.30    0.00
    306    157    158  500.00  200.00    0.30    0.00
    307    157    178  100.00  150.00    0.30    0.00
    308    158    159 1000.00  150.00    0.30    0.00
    309    158    179  900.00  300.00    0.30    0.00
    310    159    160 1000.00  250.00    0.30    0.00
    311    159    180  300.00  200.00    0.30    0.00
    312    160    161  600.00  100.00    0.30    0.00
    313    160    181  600.00  250.00    0.30    0.00
    314    161    162  700.00  250.00    0.30    0.00
    315    161    182 1000.00  150.00    0.30    0.00
    316    162    163  900.00  100.00    0.30    0.00
    317    162    183  100.00  150.00    0.30    0.00
    318    163    164  900.00  300.00    0.30    0.00
    319    163    184  100.00  150.00    0.30    0.00
    320    164    165  200.00  250.00    0.30    0.00
    321    164    185 1000.00  250.00    0.30    0.00
    322    165    166  200.00  200.00    0.30    0.00
    323    165    186 1000.00  100.00    0.30    0.00
    324    166    167  200.00  300.00    0.30    0.00
    325    166    187  500.00  150.00    0.30    0.00
    326    167    168  500.00  250.00    0.30    0.00
    327    167    188  800.00  250.00    0.30    0.00
    328    168    189  100.00  100.00    0.30    0.00
    329    169    170  700.00  250.00    0.30    0.00
    330    169    190  300.00  250.00    0.30    0.00
    331    170    171  100.00  100.00    0.30    0.00
    332    170    191  200.00  100.00    0.30    0.00
    333    171    172  300.00  100.00    0.30    0.00
    334    171    192  100.00  200.00    0.30    0.00
    335    172    173  600.00  300.00    0.30    0.00
    336    172    193  300.00  250.00    0.30    0.00
    337    173    174  400.00  300.00    0.30    0.00
    338    173    194  800.00  200.00    0.30    0.00
    339    174    175  200.00  250.00    0.30    0.00
    340    174    195  900.00  200.00    0.30    0.00
    341    175    176 1000.00  100.00    0.30    0.00
    342    175    196  900.00  100.00    0.30    0.00
    343    176    177  800.00  200.00    0.30    0.00
    344    176    197  400.00  250.00    0.30    0.00
    345    177    178  100.00  250.00    0.30    0.00
    346    177    198  200.00  300.00    0.30    0.00
    347    178    179 1000.00  300.00    0.30    0.00
    348    178    199  200.00  100.00    0.30    0.00
    349    179    180  200.00  100.00    0.30    0.00
    350    179    200  100.00  100.00    0.30    0.00
    351    180    181  200.00  300.00    0.30    0.00
    352    180    201  700.00  250.00    0.30    0.00
    353    181    182  600.00  300.00    0.30    0.00
    354    181    202  800.00  100.00    0.30    0.00
    355    182    183 1000.00  300.00    0.30    0.00
    356    182    203 1000.00  200.00    0.30    0.00
    357    183    184  900.00  100.00    0.30    0.00
    358    183    204  900.00  250.00    0.30    0.00
    359    184    185 1000.00  200.00    0.30    0.00
    360    184    205  400.00  250.00    0.30    0.00
    361    185    186  300.00  200.00    0.30    0.00
    362    185    206  100.00  300.00    0.30    0.00
    363    186    187  200.00  100.00    0.30    0.00
    364    186    207  400.00  200.00    0.30    0.00
    365    187    188  400.00  250.00    0.30    0.00
    366    187    208 1000.00  250.00    0.30    0.00
    367    188    189  300.00  250.00    0.30    0.00
    368    188    209  600.00  100.00    0.30    0.00
    369    189    210  800.00  200.00    0.30    0.00
    370    190    191  400.00  150.00    0.30    0.00
    371    190    211  900.00  300.00    0.30    0.00
    372    191    192 1000.00  100.00    0.30    0.00
    373    191    212  200.00  150.00    0.30    0.00
    374    192    193  600.00  100.00    0.30    0.00
    375    192    213  300.00  150.00    0.30    0.00
    376    193    194  900.00  250.00    0.30    0.00
    377    193    214  900.00  200.00    0.30    0.00
    378    194    195  600.00  100.00    0.30    0.00
    379    194    215  900.00  250.00    0.30    0.00
    380    195    196  400.00  150.00    0.30    0.00
    381    195    216  700.00  200.00    0.30    0.00
    382    196    197  500.00  200.00    0.30    0.00
    383    196    217  500.00  200.00    0.30    0.00
    384    197    198  500.00  200.00    0.30    0.00
    385    197    218 1000.00  150.00    0.30    0.00
    386    198    199  100.00  250.00    0.30    0.00
    387    198    219  200.00  250.00    0.30    0.00
    388    199    200  900.00  250.00    0.30    0.00
    389    199    220  800.00  200.00    0.30    0.00
    390    200    201  700.00  200.00    0.30    0.00
    391    200    221  200.00  100.00    0.30    0.00
    392    201    202  200.00  150.00    0.30    0.00
    393    201    222  100.00  150.00    0.30    0.00
    394    202    203  800.00  100.00    0.30    0.00
    395    202    223  400.00  200.00    0.30    0.00
    396    203    204  400.00  300.00    0.30    0.00
    397    203    224  100.00  100.00    0.30    0.00
    398    204    205  200.00  300.00    0.30    0.00
    399    204    225  800.00  150.00    0.30    0.00
    400    205    206  300.00  250.00    0.30    0.00
    401    205    226  300.00  200.00    0.30    0.00
    402    206    207  400.00  300.00    0.30    0.00
    403    206    227  500.00  150.00    0.30    0.00
    404    207    208  600.00  250.00    0.30    0.00
    405    207    228  400.00  300.00    0.30    0.00
    406    208    209 1000.00  150.00    0.30    0.00
    407    208    229  500.00  300.00    0.30    0.00
    408    209    210  700.00  250.00    0.30    0.00
    409    209    230  900.00  200.00    0.30    0.00
    410    210    231  500.00  150.00    0.30    0.00
    411    211    212  100.00  300.00    0.30    0.00
    412    211    232  500.00  150.00    0.30    0.00
    413    212    213  900.00  200.00    0.30    0.00
    414    212    233  100.00  100.00    0.30    0.00
    415    213    214  100.00  100.00    0.30    0.00
    416    213    234  900.00  250.00    0.30    0.00
    417    214    215  600.00  100.00    0.30    0.00
    418    214    235  800.00  150.00    0.30    0.00
    419    215    216  200.00  200.00    0.30    0.00
    420    215    236  300.00  100.00    0.30    0.00
    421    216    217  100.00  200.00    0.30    0.00
    422    216    237  900.00  250.00    0.30    0.00
    423    217    218  900.00  250.00    0.30    0.00
    424    217    238  200.00  300.00    0.30    0.00
    425    218    219  900.00  200.00    0.30    0.00
    426    218    239  200.00  100.00    0.30    0.00
    427    219    220  900.00  200.00    0.30    0.00
    428    219    240  300.00  100.00    0.30    0.00
    429    220    221  800.00  200.00    0.30    0.00