[TITLE]
;--------------------------------
; Job Description
;--------------------------------
Random network   6 by   6 nodes    

[JUNCTIONS]
;--------------------------------------
;   ID   Elevation   Demand   (Pattern)
;--------------------------------------
     2   0.0   6.0
     3   0.0   6.0
     4   0.0   7.0
     5   0.0   0.0
     6   0.0   1.0
     7   0.0   8.0
     8   0.0   4.0
     9   0.0   9.0
    10   0.0   6.0
    11   0.0   6.0
    12   0.0   0.0
    13   0.0   4.0
    14   0.0   9.0
    15   0.0   0.0
    16   0.0   3.0
    17   0.0   9.0
    18   0.0   6.0
    19   0.0   5.0
    20   0.0   6.0
    21   0.0   6.0
    22   0.0   4.0
    23   0.0   2.0
    24   0.0   2.0
    25   0.0   9.0
    26   0.0   5.0
    27   0.0   3.0
    28   0.0   0.0
    29   0.0   7.0
    30   0.0   8.0
    31   0.0   2.0
    32   0.0   6.0
    33   0.0   1.0
    34   0.0   8.0
    35   0.0   3.0
    36   0.0   6.0

[TANKS]
;------------------
;          Initial
;   ID      Level
;------------------
      1 260.0

[PIPES]
;---------------------------------------------------
;      ID  Start  End    L     D     Rough Minor K  
;---------------------------------------------------
      1      1      2  900.00  150.00    0.30    0.00
      2      1      7  600.00  200.00    0.30    0.00
      3      2      3  600.00  100.00    0.30    0.00
      4      2      8  400.00  300.00    0.30    0.00
      5      3      4  200.00  300.00    0.30    0.00
      6      3      9  100.00  250.00    0.30    0.00
      7      4      5  600.00  100.00    0.30    0.00
      8      4     10  300.00  200.00    0.30    0.00
      9      5      6  500.00  150.00    0.30    0.00
     10      5     11 1000.00  150.00    0.30    0.00
     11      6     12  400.00  200.00    0.30    0.00
     12      7      8  300.00  150.00    0.30    0.00
     13      7     13  100.00  300.00    0.30    0.00
     14      8      9  500.00  300.00    0.30    0.00
     15      8     14  600.00  300.00    0.30    0.00
     16      9     10  400.00  300.00    0.30    0.00
     17      9     15  300.00  100.00    0.30    0.00
     18     10     11  600.00  150.00    0.30    0.00
     19     10     16  900.00  300.00    0.30    0.00
     20     11     12  200.00  250.00    0.30    0.00
     21     11     17  500.00  250.00    0.30    0.00
     22     12     18  200.00  100.00    0.30    0.00
     23     13     14  600.00  150.00    0.30    0.00
     24     13     19  400.00  100.00    0.30    0.00
     25     14     15  800.00  200.00    0.30    0.00
     26     14     20  300.00  250.00    0.30    0.00
     27     15     16 1000.00  200.00    0.30    0.00
     28     15     21  300.00  300.00    0.30    0.00
     29     16     17  300.00  250.00    0.30    0.00
     30     16     22  700.00  200.00    0.30    0.00
     31     17     18  400.00  100.00    0.30    0.00
     32     17     23 1000.00  250.00    0.30    0.00
     33     18     24  700.00  200.00    0.30    0.00
     34     19     20 1000.00  200.00    0.30    0.00
     35     19     25  200.00  250.00    0.30    0.00
     36     20     21  900.00  200.00    0.30    0.00
     37     20     26  700.00  250.00    0.30    0.00
     38     21     22  900.00  100.00    0.30    0.00
     39     21     27  100.00  250.00    0.30    0.00
     40     22     23  500.00  250.00    0.30    0.00
     41     22     28  900.00  200.00    0.30    0.00
     42     23     24  600.00  200.00    0.30    0.00
     43     23     29  200.00  250.00    0.30    0.00
     44     24     30  700.00  300.00    0.30    0.00
     45     25     26  700.00  250.00    0.30    0.00
     46     25     31  800.00  250.00    0.30    0.00
     47     26     27  900.00  250.00    0.30    0.00
     48     26     32  500.00  200.00    0.30    0.00
     49     27     28  400.00  300.00    0.30    0.00
     50     27     33  100.00  250.00    0.30    0.00
     51     28     29  700.00  250.00    0.30    0.00
     52     28     34  300.00  300.00    0.30    0.00
     53     29     30  900.00  250.00    0.30    0.00
     54     29     35  900.00  200.00    0.30    0.00
     55     30     36  300.00  150.00    0.30    0.00
     56     31     32  600.00  150.00    0.30    0.00
     57     32     33  300.00  250.00    0.30    0.00
     58     33     34  300.00  300.00    0.30    0.00
     59     34     35  600.00  200.00    0.30    0.00
     60     35     36  300.00  200.00    0.30    0.00

[VALVES]
;---------------------------------------------------
;      ID  Start  End   TYPE   D  Set head Minor K  
;---------------------------------------------------

[STATUS]
;----------------
; Link  Setting  
;----------------

[CONTROLS]

[TIMES]

[OPTIONS]
  UNITS    SI
  HEADLOSS    D-W
  ACCURACY       0.1000000013351432E-09
  MAP   z0000060.map

[REPORT]
  LINK NONE

[END]
